Solar_ble_beacon
*SPICE Netlist generated by Advanced Sim server on 24-11-2022 17:13:47
.options MixedSimGenerated

.PLOT {V(BUCK)} =PLOT(1) =AXIS(1)

*Selected Circuit Analyses:
.TRAN 0.1u 5u 0 0.1u

.END